read_data	InputFiles/216.lmpsys
  orthogonal box = (0 0 0) to (30 30 30)
  reading atoms ...
  216 atoms

pair_style	lj/cut 10.0
pair_coeff   	1 1 0.4 3.4

timestep	1.0
neighbor	2.0 bin
neigh_modify	every 10 delay 0 check yes

minimize 	1.0e-4 1.0e-6 1000 10000
  1 neighbor list requests
  update every 1 steps, delay 0 steps, check yes
Step Temp E_pair E_mol TotEng Press
0            0    28459.493            0    28459.493       325123
Loop time of 0.0145788 on 2 procs for 34 steps with 216 atoms

Minimization stats:
  Stopping criterion = energy tolerance
  Energy initial, next-to-last, final =
  Force two-norm initial, final = 4186.89 0.426422
  Force max component initial, final = 285.223 0.0370118
  Final line search alpha, max atom move = 1 0.0370118
  Iterations, force evaluations = 34 38

variable        seed equal 12345*1
velocity        all create 298.0 12345

fix 		fxnvt all nvt temp 300.0 300.0 100.0

thermo_style    custom step temp pe ke etotal press
thermo          1000

run 		50000
  1 neighbor list requests
  update every 10 steps, delay 0 steps, check yes
Step Temp PotEng KinEng TotEng Press
34          298   -348.98809     190.9805   -158.00759    311.86514
Averages over the last 26 of 52 rows, steps 26000 to 50034:
Temp PotEng KinEng TotEng Press
295.688 -177.302 189.499 12.1965 208.653
Loop time of 5.02075 on 2 procs for 50000 steps with 216 atoms

dump            dmpall	all dcd	10000 OutputFiles/1.dcd
run 		50000
Step Temp PotEng KinEng TotEng Press
50034    311.73673   -177.25605    199.78401    22.527968     191.0814
Averages over the last 26 of 52 rows, steps 76000 to 100034:
Temp PotEng KinEng TotEng Press
294.61 -177.13 188.808 11.6779 182.613
Loop time of 5.08095 on 2 procs for 50000 steps with 216 atoms
