read_data	inputFiles/propane.lmpsys
  orthogonal box = (-9.8453 -9.84709 -8.42237) to (9.9943 10.0849 8.32183)
  reading atoms ...
  396 atoms
  scanning bonds ...
  scanning angles ...
  scanning dihedrals ...
  reading bonds ...
  360 bonds
  reading angles ...
  648 angles
  reading dihedrals ...
  648 dihedrals

pair_style	lj/cut/coul/long 10.0 10.0
bond_style   	harmonic
angle_style  	harmonic
dihedral_style  opls
kspace_style 	pppm 0.0001
pair_modify     mix geometric tail yes
special_bonds	lj/coul 0.0 0.0 0.5  # OPLS considers 1-4 interactions with 50%.

pair_coeff	1 1 0.066 3.5	# CT
pair_coeff   	2 2 0.03  2.5	# HC
bond_coeff   	1 268.0 1.529	# CT-CT
bond_coeff   	2 340.0 1.09	# CT-HC
angle_coeff  	1 58.35 112.7    # CT-CT-CT
angle_coeff  	2 37.5  110.7    # CT-CT-HC
angle_coeff  	3 33.0  107.8    # HC-CT-HC
dihedral_coeff 	1 0.000 0.000 0.366 0.000 # CT-CT-CT-HC
dihedral_coeff 	2 0.000 0.000 0.318 0.000 # HC-CT-CT-HC

minimize 	1.0e-4 1.0e-6 1000 10000
PPPM initialization ...
  G vector (1/distance) = 0.214412
  grid = 6 6 5
  stencil order = 5
  estimated absolute RMS force accuracy = 0.00718805
  estimated relative force accuracy = 2.16466e-05
  3d grid and FFT values/proc = 880 108
  1 neighbor list requests
  update every 1 steps, delay 0 steps, check yes
Step Temp E_pair E_mol TotEng Press
0            0   -5.2362544    142.46854    137.23229   -18938.042
Loop time of 0.498195 on 2 procs for 47 steps with 396 atoms

Minimization stats:
  Stopping criterion = energy tolerance
  Energy initial, next-to-last, final =
  Force two-norm initial, final = 402.073 1.00452
  Force max component initial, final = 23.9766 0.0882615
  Final line search alpha, max atom move = 0.125 0.0110327
  Iterations, force evaluations = 47 212

fix 		fxnvt all nvt temp 300.0 300.0 100.0

thermo_style    custom step temp pe etotal press epair
thermo          1000

dump            dmpall all dcd 100 outputFiles/propane.dcd
run 		10000
PPPM initialization ...
  G vector (1/distance) = 0.214412
  grid = 6 6 5
  stencil order = 5
  estimated absolute RMS force accuracy = 0.00718805
  estimated relative force accuracy = 2.16466e-05
  3d grid and FFT values/proc = 880 108
  1 neighbor list requests
  update every 1 steps, delay 10 steps, check yes
Step Temp PotEng TotEng Press E_pair
47            0    1.1049443    1.1049443   -1626.6091   -3.5684192
Averages over the last 6 of 12 rows, steps 6000 to 10047:
Temp PotEng TotEng Press E_pair
298.596 266.096 617.669 -98.708 6.56272
Loop time of 19.477 on 2 procs for 10000 steps with 396 atoms
