read_data	inputFiles/binary.lmpsys
  orthogonal box = (0 0 0) to (28.8344 28.8344 28.8344)
  reading atoms ...
  512 atoms

pair_style	lj/cut 10.0
pair_coeff   	1 1 0.4 3.4 10.0
pair_coeff   	2 2 0.4 3.4 10.0
pair_coeff   	1 2 0.4 3.4 3.4

timestep	1.0
neighbor	2.0 bin
neigh_modify	every 10 delay 0 check yes

minimize 	1.0e-4 1.0e-6 1000 10000
  1 neighbor list requests
  update every 1 steps, delay 0 steps, check yes
Step Temp E_pair E_mol TotEng Press
0            0    71756.319            0    71756.319    907641.64
Loop time of 0.0349033 on 4 procs for 48 steps with 512 atoms

Minimization stats:
  Stopping criterion = energy tolerance
  Energy initial, next-to-last, final =
  Force two-norm initial, final = 5558.73 2.99257
  Force max component initial, final = 284.478 0.287114
  Final line search alpha, max atom move = 4.64287e-06 1.33304e-06
  Iterations, force evaluations = 48 79

group           fixed type 1
256 atoms in group fixed
group           moved type 2
256 atoms in group moved

velocity       moved create 300.0 1234567

fix             1 fixed setforce 0.0 0.0 0.0
fix 		fxnvt all nvt temp 300.0 300.0 100.0

thermo_style    custom step temp pe ke etotal press
thermo          1000

dump            dmpall	all dcd	100 outputFiles/binary.dcd
run 		10000
  1 neighbor list requests
  update every 10 steps, delay 0 steps, check yes
Step Temp PotEng KinEng TotEng Press
48    149.70646   -550.88714    228.03197   -322.85517    2014.3401
Averages over the last 6 of 12 rows, steps 6000 to 10048:
Temp PotEng KinEng TotEng Press
292.472 -358.28 445.492 87.2118 6069
Loop time of 2.11677 on 4 procs for 10000 steps with 512 atoms
