read_data	inputFiles/binary.lmpsys
  orthogonal box = (0 0 0) to (28.8344 28.8344 28.8344)
  reading atoms ...
  512 atoms

pair_style	lj/cut 10.0
pair_coeff   	1 1 0.4 3.4 10.0
pair_coeff   	2 2 0.4 3.4 10.0
pair_coeff   	1 2 0.4 3.4 3.4

timestep	1.0
neighbor	2.0 bin
neigh_modify	every 10 delay 0 check yes

minimize 	1.0e-4 1.0e-6 1000 10000
  1 neighbor list requests
  update every 1 steps, delay 0 steps, check yes
Step Temp E_pair E_mol TotEng Press
0            0    71756.319            0    71756.319    907641.64
Loop time of 0.0404863 on 4 procs for 48 steps with 512 atoms

Minimization stats:
  Stopping criterion = energy tolerance
  Energy initial, next-to-last, final =
  Force two-norm initial, final = 5558.73 2.99257
  Force max component initial, final = 284.478 0.287114
  Final line search alpha, max atom move = 4.64287e-06 1.33304e-06
  Iterations, force evaluations = 48 79

fix 		fxnvt all nvt temp 300.0 300.0 100.0

thermo_style    custom step temp pe ke etotal press
thermo          1000

dump            dmpall	all dcd	100 outputFiles/binary.dcd
run 		100000
  1 neighbor list requests
  update every 10 steps, delay 0 steps, check yes
Step Temp PotEng KinEng TotEng Press
48            0   -550.88714            0   -550.88714    1579.5334
Averages over the last 51 of 102 rows, steps 51000 to 100048:
Temp PotEng KinEng TotEng Press
301.49 -825.416 459.227 -366.188 3941.23
Loop time of 23.9014 on 4 procs for 100000 steps with 512 atoms
