read_data	inputFiles/graphene.lmpsys
  orthogonal box = (-1.84204 -0.708999 -50) to (39.9108 41.831 50)
  reading atoms ...
  680 atoms
#read_data       inputFiles/grapheneBonds.lmpsys

atom_modify 	sort 10 20.0

pair_style 	rebo
pair_coeff 	* * inputFiles/CH.airebo.real C
neighbor	2.0 bin
neigh_modify	every 1 check yes

velocity       all create 300 1234567 mom yes rot yes dist gaussian

timestep	1.0
fix 		fxnvt all nvt temp 300.0 300.0 100.0
#fix 		fxnve all nve
#fix            temp all temp/berendsen 300.0 300.0 100.0

variable	vpeatom equal pe/atoms
thermo_style    custom step temp pe v_vpeatom etotal press
thermo          100

dump            dmpall all dcd 100 outputFiles/graphene.dcd
dump_modify 	dmpall unwrap yes

run 		1000
  1 neighbor list requests
  update every 1 steps, delay 10 steps, check yes
Step Temp PotEng vpeatom TotEng Press
0          300   -122208.76   -179.71877   -121601.57   -3636.3635
Averages over the last 6 of 11 rows, steps 500 to 1000:
Temp PotEng vpeatom TotEng Press
302.859 -121610 -178.838 -120997 -3481.55
Loop time of 4.98705 on 2 procs for 1000 steps with 680 atoms
