read_data	inputFiles/cnt.lmpsys
  orthogonal box = (-50 -50 -0.614011) to (50 50 41.1388)
  reading atoms ...
  1360 atoms
#read_data       inputFiles/cntBonds.lmpsys

atom_modify 	sort 10 20.0

pair_style 	rebo
pair_coeff 	* * inputFiles/CH.airebo.real C
neighbor	2.0 bin
neigh_modify	every 1 check yes

velocity       all create 300 1234567 mom yes rot yes dist gaussian

timestep	1.0
fix 		fxnvt all nvt temp 300.0 300.0 100.0
#fix 		fxnve all nve
#fix            temp all temp/berendsen 300.0 300.0 100.0

variable	vpeatom equal pe/atoms
thermo_style    custom step temp pe v_vpeatom etotal press
thermo          100

dump            dmpall all dcd 100 outputFiles/cnt.dcd
dump_modify 	dmpall unwrap yes

run 		1000
  1 neighbor list requests
  update every 1 steps, delay 10 steps, check yes
Step Temp PotEng vpeatom TotEng Press
0          300   -244106.51   -179.49008   -242891.23   -2964.8796
Averages over the last 6 of 11 rows, steps 500 to 1000:
Temp PotEng vpeatom TotEng Press
305.28 -243163 -178.797 -241927 -964.971
Loop time of 1.48292 on 4 procs for 1000 steps with 1360 atoms
